
#######################################################################
#
#                 Cambridge Crystallographic Data Centre
#                                CCDC 
#
#######################################################################
#
# If this CIF has been generated from an entry in the Cambridge 
# Structural Database, then it will include bibliographic, chemical, 
# crystal, experimental, refinement or atomic coordinate data resulting 
# from the CCDC's data processing and validation procedures.
#
#######################################################################

data_YIGPIO02_opt_TS2
_symmetry_cell_setting           monoclinic
_symmetry_space_group_name_H-M   'P 21'
_symmetry_Int_Tables_number      4
_space_group_name_Hall           'P 2yb'
loop_
_symmetry_equiv_pos_site_id
_symmetry_equiv_pos_as_xyz
1 x,y,z
2 -x,1/2+y,-z
_cell_length_a                   13.23009
_cell_length_b                   5.22344
_cell_length_c                   26.19099
_cell_angle_alpha                90
_cell_angle_beta                 103.30644
_cell_angle_gamma                90
_cell_volume                     1761.38
loop_
_atom_site_label
_atom_site_type_symbol
_atom_site_fract_x
_atom_site_fract_y
_atom_site_fract_z
H2 H 0.110159 -0.33425 0.177112
H4 H 0.327011 0.244584 0.233571
H6 H 0.69306 -0.120038 0.407952
H8 H 0.328125 -0.213036 -0.061308
H10 H 0.442289 -0.261566 -0.011132
H12 H 0.432947 0.003891 -0.054498
H14 H 0.202202 0.145537 -0.054271
H16 H 0.305921 0.367331 -0.049564
H18 H 0.231862 0.363193 -0.000873
H20 H 0.405467 0.157251 0.030561
H22 H 0.248204 -0.550311 0.133285
H24 H 0.002694 -0.318705 0.043165
H26 H 0.048834 -0.447693 0.106304
H28 H -0.081189 0.261932 0.083794
H30 H -0.093754 0.02071 0.035008
H32 H 0.011328 0.24 0.043806
H34 H 0.174144 0.140727 0.237354
H36 H 0.173863 -0.381317 0.288922
H38 H -0.002829 0.015757 0.265745
H40 H 0.005242 -0.241733 0.310382
H42 H -0.00843 -0.304276 0.242373
H44 H 0.175024 0.175088 0.32739
H46 H 0.283299 -0.03757 0.339945
H48 H 0.174675 -0.095378 0.36764
H50 H 0.479569 -0.162062 0.226383
H52 H 0.440182 0.125336 0.150675
H54 H 0.45808 0.399435 0.191891
H56 H 0.600105 -0.120645 0.138433
H58 H 0.78775 -0.096577 0.13958
H60 H 0.896251 0.259828 0.18596
H62 H 0.814253 0.590808 0.23246
H64 H 0.627974 0.56349 0.232023
H66 H 0.549403 0.324438 0.289
H68 H 0.491924 0.070942 0.317481
H70 H 0.668979 -0.044511 0.265896
H72 H 0.725287 0.299363 0.336154
H74 H 0.821214 -0.238772 0.34653
H76 H 0.837131 -0.000125 0.300759
H78 H 0.942224 0.391978 0.331134
H80 H 1.09511 0.563566 0.395044
H82 H 1.163001 0.338492 0.480141
H84 H 1.075607 -0.059243 0.500253
H86 H 0.921207 -0.225887 0.436209
H88 H 0.608453 0.513753 0.492172
H90 H 0.737078 0.442937 0.527283
H92 H 0.491177 0.489316 0.561843
H94 H 0.589653 -0.148879 0.657865
H96 H 0.572978 -0.289866 0.339528
C2 C 0.389361 -0.115586 -0.032478
C4 C 0.265826 0.24336 -0.026849
C6 C 0.34201 0.050366 0.004493
C8 C 0.290427 -0.107893 0.039322
C10 C 0.166278 -0.269759 0.074567
C12 C 0.248341 -0.409085 0.102899
C14 C 0.056475 -0.28437 0.081209
C16 C -0.038093 0.129649 0.0643
C18 C 0.067306 0.036848 0.151552
C20 C 0.181874 -0.068748 0.236249
C22 C 0.14656 -0.181313 0.283755
C24 C 0.028382 -0.178225 0.274859
C26 C 0.198169 -0.027204 0.332467
C28 C 0.295119 -0.138762 0.237145
C30 C 0.466677 0.041698 0.233345
C32 C 0.487356 0.205359 0.187352
C34 C 0.599945 0.222462 0.184634
C36 C 0.646601 0.037727 0.158641
C38 C 0.75245 0.050606 0.159343
C40 C 0.813802 0.248994 0.185796
C42 C 0.767951 0.43407 0.211663
C44 C 0.662304 0.421203 0.210748
C46 C 0.534755 0.117244 0.287351
C48 C 0.636802 -0.032266 0.300995
C50 C 0.72337 0.092661 0.34373
C52 C 0.82786 -0.031138 0.340979
C54 C 0.920743 0.072297 0.379623
C56 C 0.971158 0.294355 0.368504
C58 C 1.05772 0.389196 0.404231
C60 C 1.096001 0.26299 0.451763
C62 C 1.04662 0.04118 0.463269
C64 C 0.959286 -0.0516 0.427539
C66 C 0.701651 0.256456 0.429336
C68 C 0.660102 0.358846 0.510951
C70 C 0.617065 0.235286 0.55262
C72 C 0.539183 0.322296 0.575024
C74 C 0.587292 -0.012269 0.62637
S2 S 0.360298 -0.325029 0.084983
S4 S 0.670128 -0.037373 0.585077
N2 N 0.191377 -0.10069 0.038975
N4 N 0.021234 -0.04858 0.102128
N6 N 0.118323 -0.144029 0.185771
N8 N 0.356501 0.06337 0.233282
N10 N 0.700578 0.06258 0.395212
N12 N 0.522885 0.182492 0.616859
O2 O 0.062172 0.267081 0.164889
O4 O 0.325109 -0.366278 0.239747
O6 O 0.618459 -0.290934 0.314143
O8 O 0.724566 0.482406 0.424672
O10 O 0.669322 0.165475 0.472805


#END
