
#######################################################################
#
#                 Cambridge Crystallographic Data Centre
#                                CCDC 
#
#######################################################################
#
# If this CIF has been generated from an entry in the Cambridge 
# Structural Database, then it will include bibliographic, chemical, 
# crystal, experimental, refinement or atomic coordinate data resulting 
# from the CCDC's data processing and validation procedures.
#
#######################################################################

data_YIGPIO03_opt_TS2
_symmetry_cell_setting           orthorhombic
_symmetry_space_group_name_H-M   'P 21 21 21'
_symmetry_Int_Tables_number      19
_space_group_name_Hall           'P 2ac 2ab'
loop_
_symmetry_equiv_pos_site_id
_symmetry_equiv_pos_as_xyz
1 x,y,z
2 1/2-x,-y,1/2+z
3 -x,1/2+y,1/2-z
4 1/2+x,1/2-y,-z
_cell_length_a                   9.64523
_cell_length_b                   18.41944
_cell_length_c                   20.04876
_cell_angle_alpha                90
_cell_angle_beta                 90
_cell_angle_gamma                90
_cell_volume                     3561.86
loop_
_atom_site_label
_atom_site_type_symbol
_atom_site_fract_x
_atom_site_fract_y
_atom_site_fract_z
H1 H 0.199499 0.573444 0.98614
H5 H 0.345615 1.001064 1.115625
H9 H 0.582798 0.82129 1.025321
H13 H 0.654313 0.56649 0.943946
H17 H 0.646311 1.098022 0.777103
H21 H 0.65775 1.186515 0.743179
H25 H 0.573184 1.116778 0.69726
H29 H 0.391047 1.10881 0.787128
H33 H 0.422639 1.263247 0.73037
H37 H 0.267499 1.225174 0.76277
H41 H 0.343722 1.188562 0.689487
H45 H 0.543186 1.303081 0.985286
H49 H 0.672473 1.11862 1.011628
H53 H 0.599639 1.190993 1.058764
H57 H 0.353457 1.13381 1.129306
H61 H 0.259459 1.091415 1.062576
H65 H 0.327334 1.179646 1.051815
H69 H 0.588253 0.90547 1.098016
H73 H 0.341959 0.893005 1.192257
H77 H 0.640179 0.94477 1.218711
H81 H 0.511615 0.930118 1.28053
H85 H 0.489511 0.999764 1.220353
H89 H 0.614297 0.80688 1.181078
H93 H 0.445102 0.772863 1.165757
H97 H 0.494281 0.797994 1.247668
H101 H 0.308979 0.762005 0.984298
H105 H 0.584413 0.779173 0.909732
H109 H 0.445661 0.727865 0.877626
H113 H 0.528925 0.918358 0.936312
H117 H 0.419147 1.026877 0.889506
H121 H 0.234894 1.014491 0.801705
H125 H 0.16895 0.892016 0.761344
H129 H 0.272092 0.782238 0.813073
H133 H 0.577811 0.673329 0.992123
H137 H 0.452139 0.676011 1.056838
H141 H 0.376989 0.628017 0.915395
H145 H 0.3699 0.50326 0.961328
H149 H 0.582488 0.552233 1.0651
H153 H 0.402527 0.551835 1.081963
H157 H 0.71137 0.436891 1.061026
H161 H 0.722183 0.312096 1.106155
H165 H 0.506734 0.250323 1.145051
H169 H 0.278825 0.312217 1.131177
H173 H 0.268065 0.437865 1.087257
H177 H 0.530397 0.404561 0.784597
H181 H 0.480629 0.489133 0.75168
H185 H 0.219234 0.389961 0.867374
H189 H 0.024375 0.351592 0.683272
C1 C 0.590218 1.138701 0.747551
C5 C 0.451569 1.159031 0.78072
C9 C 0.366467 1.21205 0.738605
C13 C 0.479101 1.187124 0.849892
C17 C 0.52712 1.260364 0.948786
C21 C 0.533979 1.18644 0.957707
C25 C 0.577083 1.149462 1.02093
C29 C 0.347568 1.126681 1.074791
C33 C 0.517369 1.027405 1.055861
C37 C 0.476647 0.909376 1.10823
C41 C 0.454182 0.890152 1.182504
C45 C 0.527794 0.944386 1.22802
C49 C 0.504336 0.812586 1.194931
C53 C 0.39856 0.855593 1.063399
C57 C 0.422284 0.756835 0.980903
C61 C 0.47045 0.774615 0.909382
C65 C 0.405821 0.841756 0.879795
C69 C 0.446157 0.911612 0.89996
C73 C 0.38399 0.973397 0.873057
C77 C 0.282057 0.966538 0.823945
C81 C 0.243577 0.897615 0.801817
C85 C 0.303556 0.835966 0.830329
C89 C 0.466564 0.680102 1.002548
C93 C 0.383525 0.618982 0.969967
C97 C 0.448512 0.54207 0.978509
C101 C 0.483889 0.525781 1.051952
C105 C 0.489476 0.446848 1.071702
C109 C 0.616044 0.40966 1.07606
C113 C 0.622244 0.339354 1.102012
C117 C 0.501313 0.304327 1.122814
C121 C 0.373765 0.339417 1.115604
C125 C 0.367906 0.410108 1.090617
C129 C 0.571341 0.503929 0.874051
C133 C 0.449854 0.446764 0.787137
C137 C 0.310279 0.416846 0.771329
C141 C 0.21042 0.389628 0.813391
C145 C 0.103912 0.368621 0.718339
S1 S 0.48719 1.279694 0.86779
S5 S 0.254384 0.408156 0.690268
N1 N 0.505839 1.145947 0.90169
N5 N 0.475644 1.097889 1.046922
N9 N 0.434729 0.983235 1.09281
N13 N 0.478273 0.810402 1.02735
N17 N 0.569863 0.533121 0.935841
N21 N 0.0937 0.362241 0.783367
O1 O 0.630007 1.005498 1.03063
O5 O 0.268886 0.85403 1.062567
O9 O 0.246724 0.620367 0.997964
O13 O 0.675857 0.50102 0.838001
O17 O 0.446191 0.476534 0.853976
#END
